CCCCCCC
     RDKit          3D

 23 22  0  0  0  0  0  0  0  0999 V2000
   -3.1414   -0.9703   -1.3277 H   0  0  0  0  0  0  0  0  0  0  0  0
   -3.4444   -1.1594    0.3389 H   0  0  0  0  0  0  0  0  0  0  0  0
   -3.6500    0.4974   -0.7419 H   0  0  0  0  0  0  0  0  0  0  0  0
    2.7034   -1.5975    1.0465 H   0  0  0  0  0  0  0  0  0  0  0  0
    3.1172   -1.2254   -0.4668 H   0  0  0  0  0  0  0  0  0  0  0  0
    3.2117   -0.1878    1.2677 H   0  0  0  0  0  0  0  0  0  0  0  0
   -2.3726   -0.2305    1.3064 H   0  0  0  0  0  0  0  0  0  0  0  0
   -2.4672    1.2758    0.3213 H   0  0  0  0  0  0  0  0  0  0  0  0
    2.8675    0.2623   -1.2133 H   0  0  0  0  0  0  0  0  0  0  0  0
    2.7457    1.2706    0.4506 H   0  0  0  0  0  0  0  0  0  0  0  0
   -0.6957   -0.1207    1.1655 H   0  0  0  0  0  0  0  0  0  0  0  0
   -0.9281   -0.8487   -0.4229 H   0  0  0  0  0  0  0  0  0  0  0  0
    1.1928   -0.3229    0.1584 H   0  0  0  0  0  0  0  0  0  0  0  0
    1.2514    0.3905   -1.1879 H   0  0  0  0  0  0  0  0  0  0  0  0
   -0.3610    0.5325   -1.1847 H   0  0  0  0  0  0  0  0  0  0  0  0
   -0.2790    1.4076    0.6320 H   0  0  0  0  0  0  0  0  0  0  0  0
   -3.6434   -0.5354   -0.4914 C   0  0  0  0  0  0  0  0  0  0  0  0
    3.3518   -0.9295    0.5211 C   0  0  0  0  0  0  0  0  0  0  0  0
   -2.5872    0.2230    0.3815 C   0  0  0  0  0  0  0  0  0  0  0  0
    2.9456    0.4438   -0.1765 C   0  0  0  0  0  0  0  0  0  0  0  0
   -1.0581    0.0036    0.1783 C   0  0  0  0  0  0  0  0  0  0  0  0
    1.3712    0.6594   -0.1874 C   0  0  0  0  0  0  0  0  0  0  0  0
   -0.1303    1.1615   -0.3677 C   0  0  0  0  0  0  0  0  0  0  0  0
  1 17  1  0
  2 17  1  0
  3 17  1  0
  4 18  1  0
  5 18  1  0
  6 18  1  0
  7 19  1  0
  8 19  1  0
  9 20  1  0
 10 20  1  0
 11 21  1  0
 12 21  1  0
 13 22  1  0
 14 22  1  0
 15 23  1  0
 16 23  1  0
 17 19  1  0
 18 20  1  0
 19 21  1  0
 20 22  1  0
 21 23  1  0
 22 23  1  0
M  END
$$$$
