C=C(CSCCCSc1ccc(C(=O)C(C)(C)N2CCOCC2)cc1)C(=O)OC
     RDKit          3D

 60 61  0  0  0  0  0  0  0  0999 V2000
   10.9216    0.7821    1.8984 H   0  0  0  0  0  0  0  0  0  0  0  0
   10.9289   -1.1415    1.9481 H   0  0  0  0  0  0  0  0  0  0  0  0
   -0.8523   -0.6443    1.6938 H   0  0  0  0  0  0  0  0  0  0  0  0
   -1.0263    1.2689    0.0804 H   0  0  0  0  0  0  0  0  0  0  0  0
   -2.5139   -0.5790    1.7225 H   0  0  0  0  0  0  0  0  0  0  0  0
   -2.3180   -0.5838   -1.8670 H   0  0  0  0  0  0  0  0  0  0  0  0
   13.5786    0.7104   -2.3633 H   0  0  0  0  0  0  0  0  0  0  0  0
   13.7220    1.0429   -0.6284 H   0  0  0  0  0  0  0  0  0  0  0  0
   13.8089   -0.7091   -0.9892 H   0  0  0  0  0  0  0  0  0  0  0  0
    8.8575   -0.3199    1.2705 H   0  0  0  0  0  0  0  0  0  0  0  0
    8.8541    1.1451    0.3236 H   0  0  0  0  0  0  0  0  0  0  0  0
   -6.3631   -1.8915    1.5277 H   0  0  0  0  0  0  0  0  0  0  0  0
   -6.4685   -2.1978   -0.2019 H   0  0  0  0  0  0  0  0  0  0  0  0
   -6.5445   -0.7096    1.3260 H   0  0  0  0  0  0  0  0  0  0  0  0
   -6.1799    0.8752   -1.7986 H   0  0  0  0  0  0  0  0  0  0  0  0
   -6.3818   -1.1677   -1.3785 H   0  0  0  0  0  0  0  0  0  0  0  0
   -6.0706   -0.8546   -2.5544 H   0  0  0  0  0  0  0  0  0  0  0  0
   -9.6103    0.9949    2.1633 H   0  0  0  0  0  0  0  0  0  0  0  0
   -9.9547   -0.2230    0.5909 H   0  0  0  0  0  0  0  0  0  0  0  0
   -9.9214    0.4113   -1.0707 H   0  0  0  0  0  0  0  0  0  0  0  0
   -9.4643    2.3342   -1.4730 H   0  0  0  0  0  0  0  0  0  0  0  0
    2.8412    0.8150    0.5087 H   0  0  0  0  0  0  0  0  0  0  0  0
    2.8490   -0.7917    1.2843 H   0  0  0  0  0  0  0  0  0  0  0  0
    5.8318    1.0284    0.2034 H   0  0  0  0  0  0  0  0  0  0  0  0
    5.8927   -0.2920    1.3721 H   0  0  0  0  0  0  0  0  0  0  0  0
   -7.9821    0.8046    2.0785 H   0  0  0  0  0  0  0  0  0  0  0  0
   -8.3648   -0.7479    1.0342 H   0  0  0  0  0  0  0  0  0  0  0  0
   -8.3509   -0.0863   -1.2048 H   0  0  0  0  0  0  0  0  0  0  0  0
   -7.9003    1.4850   -1.8723 H   0  0  0  0  0  0  0  0  0  0  0  0
    4.4133   -1.5477    0.1413 H   0  0  0  0  0  0  0  0  0  0  0  0
    4.3727   -0.3906   -1.1201 H   0  0  0  0  0  0  0  0  0  0  0  0
   11.5289    0.5099   -0.6880 C   0  0  0  0  0  0  0  0  0  0  0  0
   -4.6524    0.0301    0.1636 C   0  0  0  0  0  0  0  0  0  0  0  0
   11.0372   -0.1936    1.4639 C   0  0  0  0  0  0  0  0  0  0  0  0
   10.4980   -0.2139    0.2022 C   0  0  0  0  0  0  0  0  0  0  0  0
   -0.9718   -1.2729    0.8364 C   0  0  0  0  0  0  0  0  0  0  0  0
   -1.0210    0.4886   -0.6553 C   0  0  0  0  0  0  0  0  0  0  0  0
   -2.4302   -1.1981    0.8528 C   0  0  0  0  0  0  0  0  0  0  0  0
   -2.3446    0.1312   -1.0806 C   0  0  0  0  0  0  0  0  0  0  0  0
   -0.2094   -0.5639   -0.1459 C   0  0  0  0  0  0  0  0  0  0  0  0
   -3.2104   -0.5327   -0.1631 C   0  0  0  0  0  0  0  0  0  0  0  0
   13.7451    0.2801   -1.3940 C   0  0  0  0  0  0  0  0  0  0  0  0
    8.9520    0.0748    0.2815 C   0  0  0  0  0  0  0  0  0  0  0  0
   -6.6058   -1.4716    0.5759 C   0  0  0  0  0  0  0  0  0  0  0  0
   -6.3312   -0.1820   -1.7627 C   0  0  0  0  0  0  0  0  0  0  0  0
   -9.8398    0.6659    1.1760 C   0  0  0  0  0  0  0  0  0  0  0  0
   -9.7513    1.4507   -0.9299 C   0  0  0  0  0  0  0  0  0  0  0  0
    2.9103   -0.2463    0.3687 C   0  0  0  0  0  0  0  0  0  0  0  0
    5.8806   -0.0287    0.3353 C   0  0  0  0  0  0  0  0  0  0  0  0
   -8.3258    0.3051    1.1885 C   0  0  0  0  0  0  0  0  0  0  0  0
   -8.2792    0.9634   -1.0129 C   0  0  0  0  0  0  0  0  0  0  0  0
    4.4193   -0.4985   -0.0550 C   0  0  0  0  0  0  0  0  0  0  0  0
   -6.1841   -0.1963   -0.2141 C   0  0  0  0  0  0  0  0  0  0  0  0
   -7.3518    0.7607    0.1360 N   0  0  0  0  0  0  0  0  0  0  0  0
   11.1971    1.6967   -0.9722 O   0  0  0  0  0  0  0  0  0  0  0  0
   -4.5291    0.2912    1.3814 O   0  0  0  0  0  0  0  0  0  0  0  0
   12.3899   -0.1859   -1.5978 O   0  0  0  0  0  0  0  0  0  0  0  0
  -10.1026    1.8259    0.3973 O   0  0  0  0  0  0  0  0  0  0  0  0
    1.5500   -0.9029   -0.7658 S   0  0  0  0  0  0  0  0  0  0  0  0
    7.4276   -0.6068   -0.5677 S   0  0  0  0  0  0  0  0  0  0  0  0
  1 34  1  0
  2 34  1  0
  3 36  1  0
  4 37  1  0
  5 38  1  0
  6 39  1  0
  7 42  1  0
  8 42  1  0
  9 42  1  0
 10 43  1  0
 11 43  1  0
 12 44  1  0
 13 44  1  0
 14 44  1  0
 15 45  1  0
 16 45  1  0
 17 45  1  0
 18 46  1  0
 19 46  1  0
 20 47  1  0
 21 47  1  0
 22 48  1  0
 23 48  1  0
 24 49  1  0
 25 49  1  0
 26 50  1  0
 27 50  1  0
 28 51  1  0
 29 51  1  0
 30 52  1  0
 31 52  1  0
 32 35  1  0
 32 55  2  0
 32 57  1  0
 33 41  1  0
 33 53  1  0
 33 56  2  0
 34 35  2  0
 35 43  1  0
 36 38  4  0
 36 40  4  0
 37 39  4  0
 37 40  4  0
 38 41  4  0
 39 41  4  0
 40 59  1  0
 42 57  1  0
 43 60  1  0
 44 53  1  0
 45 53  1  0
 46 50  1  0
 46 58  1  0
 47 51  1  0
 47 58  1  0
 48 52  1  0
 48 59  1  0
 49 52  1  0
 49 60  1  0
 50 54  1  0
 51 54  1  0
 53 54  1  0
M  END
$$$$
