CCCCCCC
     RDKit          3D

 23 22  0  0  0  0  0  0  0  0999 V2000
   -3.2727   -1.0911   -1.2897 H   0  0  0  0  0  0  0  0  0  0  0  0
   -3.6113   -1.4606    0.2141 H   0  0  0  0  0  0  0  0  0  0  0  0
   -3.8997    0.3186   -0.9709 H   0  0  0  0  0  0  0  0  0  0  0  0
    2.7719   -1.6350    1.0010 H   0  0  0  0  0  0  0  0  0  0  0  0
    3.2280   -1.3518   -0.4371 H   0  0  0  0  0  0  0  0  0  0  0  0
    3.3086   -0.2673    1.4026 H   0  0  0  0  0  0  0  0  0  0  0  0
   -2.4739   -0.2756    1.4138 H   0  0  0  0  0  0  0  0  0  0  0  0
   -2.6156    1.2438    0.4515 H   0  0  0  0  0  0  0  0  0  0  0  0
    2.9579    0.1030   -1.2671 H   0  0  0  0  0  0  0  0  0  0  0  0
    2.9951    1.2173    0.5270 H   0  0  0  0  0  0  0  0  0  0  0  0
   -0.6750   -0.1200    1.0689 H   0  0  0  0  0  0  0  0  0  0  0  0
   -0.8824   -0.6685   -0.6845 H   0  0  0  0  0  0  0  0  0  0  0  0
    1.2063   -0.0115    0.5712 H   0  0  0  0  0  0  0  0  0  0  0  0
    1.1800   -0.0409   -1.1138 H   0  0  0  0  0  0  0  0  0  0  0  0
   -0.2711    1.1842   -1.3258 H   0  0  0  0  0  0  0  0  0  0  0  0
   -0.1791    1.7022    0.6965 H   0  0  0  0  0  0  0  0  0  0  0  0
   -3.7765   -0.6227   -0.4477 C   0  0  0  0  0  0  0  0  0  0  0  0
    3.4251   -0.8979    0.5207 C   0  0  0  0  0  0  0  0  0  0  0  0
   -2.6236    0.1793    0.4607 C   0  0  0  0  0  0  0  0  0  0  0  0
    3.0137    0.5291   -0.3059 C   0  0  0  0  0  0  0  0  0  0  0  0
   -1.0417    0.0279    0.0862 C   0  0  0  0  0  0  0  0  0  0  0  0
    1.3347    0.6012   -0.2869 C   0  0  0  0  0  0  0  0  0  0  0  0
   -0.0987    1.3361   -0.2847 C   0  0  0  0  0  0  0  0  0  0  0  0
  1 17  1  0
  2 17  1  0
  3 17  1  0
  4 18  1  0
  5 18  1  0
  6 18  1  0
  7 19  1  0
  8 19  1  0
  9 20  1  0
 10 20  1  0
 11 21  1  0
 12 21  1  0
 13 22  1  0
 14 22  1  0
 15 23  1  0
 16 23  1  0
 17 19  1  0
 18 20  1  0
 19 21  1  0
 20 22  1  0
 21 23  1  0
 22 23  1  0
M  END
$$$$
