C=C(CSCCCSc1ccc(C(=O)C(C)(C)N2CCOCC2)cc1)C(=O)OC
     RDKit          3D

 60 61  0  0  0  0  0  0  0  0999 V2000
   10.9353    0.7415    2.0265 H   0  0  0  0  0  0  0  0  0  0  0  0
   10.9607   -1.1751    1.9727 H   0  0  0  0  0  0  0  0  0  0  0  0
   -0.7538   -0.8282    1.6416 H   0  0  0  0  0  0  0  0  0  0  0  0
   -0.7240    1.2697   -0.3848 H   0  0  0  0  0  0  0  0  0  0  0  0
   -2.5655   -0.8937    1.6534 H   0  0  0  0  0  0  0  0  0  0  0  0
   -2.5413    1.1970   -0.2011 H   0  0  0  0  0  0  0  0  0  0  0  0
   13.6794    0.8150   -2.4032 H   0  0  0  0  0  0  0  0  0  0  0  0
   13.7683    0.9962   -0.7181 H   0  0  0  0  0  0  0  0  0  0  0  0
   13.9267   -0.6999   -0.9802 H   0  0  0  0  0  0  0  0  0  0  0  0
    8.8195   -0.2857    1.3599 H   0  0  0  0  0  0  0  0  0  0  0  0
    8.8382    1.1493    0.3596 H   0  0  0  0  0  0  0  0  0  0  0  0
   -6.3221   -2.4004    1.2618 H   0  0  0  0  0  0  0  0  0  0  0  0
   -6.7083   -2.1111   -0.2240 H   0  0  0  0  0  0  0  0  0  0  0  0
   -6.6732   -0.9262    1.5964 H   0  0  0  0  0  0  0  0  0  0  0  0
   -6.3352    0.6852   -1.7964 H   0  0  0  0  0  0  0  0  0  0  0  0
   -6.4058   -1.4793   -1.6148 H   0  0  0  0  0  0  0  0  0  0  0  0
   -6.0511   -0.4909   -2.7596 H   0  0  0  0  0  0  0  0  0  0  0  0
   -9.7370    1.2380    2.1755 H   0  0  0  0  0  0  0  0  0  0  0  0
  -10.1079   -0.1819    0.7148 H   0  0  0  0  0  0  0  0  0  0  0  0
  -10.0222    0.3650   -1.1422 H   0  0  0  0  0  0  0  0  0  0  0  0
   -9.5646    2.3049   -1.5768 H   0  0  0  0  0  0  0  0  0  0  0  0
    2.8419    0.7833    0.4362 H   0  0  0  0  0  0  0  0  0  0  0  0
    2.8529   -0.7850    1.2962 H   0  0  0  0  0  0  0  0  0  0  0  0
    5.8287    1.0185    0.2019 H   0  0  0  0  0  0  0  0  0  0  0  0
    5.8921   -0.2761    1.4023 H   0  0  0  0  0  0  0  0  0  0  0  0
   -7.9614    0.8049    2.1286 H   0  0  0  0  0  0  0  0  0  0  0  0
   -8.3919   -0.6889    1.0514 H   0  0  0  0  0  0  0  0  0  0  0  0
   -8.3011    0.0019   -1.3338 H   0  0  0  0  0  0  0  0  0  0  0  0
   -7.8033    1.6699   -1.7874 H   0  0  0  0  0  0  0  0  0  0  0  0
    4.4482   -1.6002    0.0913 H   0  0  0  0  0  0  0  0  0  0  0  0
    4.3974   -0.3855   -1.1164 H   0  0  0  0  0  0  0  0  0  0  0  0
   11.4931    0.5575   -0.7306 C   0  0  0  0  0  0  0  0  0  0  0  0
   -4.5918   -0.2238    0.1913 C   0  0  0  0  0  0  0  0  0  0  0  0
   11.0618   -0.2044    1.5263 C   0  0  0  0  0  0  0  0  0  0  0  0
   10.5137   -0.1646    0.2424 C   0  0  0  0  0  0  0  0  0  0  0  0
   -0.8970   -1.4006    0.7338 C   0  0  0  0  0  0  0  0  0  0  0  0
   -0.9091    0.3482   -0.9230 C   0  0  0  0  0  0  0  0  0  0  0  0
   -2.4001   -1.4248    0.7244 C   0  0  0  0  0  0  0  0  0  0  0  0
   -2.4074    0.3529   -0.8629 C   0  0  0  0  0  0  0  0  0  0  0  0
   -0.1560   -0.7019   -0.2944 C   0  0  0  0  0  0  0  0  0  0  0  0
   -3.1715   -0.7490   -0.3152 C   0  0  0  0  0  0  0  0  0  0  0  0
   13.7727    0.2398   -1.4914 C   0  0  0  0  0  0  0  0  0  0  0  0
    8.9456    0.0784    0.3573 C   0  0  0  0  0  0  0  0  0  0  0  0
   -6.6806   -1.5418    0.6975 C   0  0  0  0  0  0  0  0  0  0  0  0
   -6.3909   -0.4026   -1.7287 C   0  0  0  0  0  0  0  0  0  0  0  0
   -9.8921    0.7328    1.2390 C   0  0  0  0  0  0  0  0  0  0  0  0
   -9.7671    1.4011   -1.0225 C   0  0  0  0  0  0  0  0  0  0  0  0
    2.9202   -0.2837    0.3559 C   0  0  0  0  0  0  0  0  0  0  0  0
    5.8829   -0.0356    0.3587 C   0  0  0  0  0  0  0  0  0  0  0  0
   -8.3071    0.3557    1.2162 C   0  0  0  0  0  0  0  0  0  0  0  0
   -8.1931    1.0199   -1.0297 C   0  0  0  0  0  0  0  0  0  0  0  0
    4.4380   -0.5410   -0.0560 C   0  0  0  0  0  0  0  0  0  0  0  0
   -6.1521   -0.2728   -0.1405 C   0  0  0  0  0  0  0  0  0  0  0  0
   -7.2981    0.7524    0.1597 N   0  0  0  0  0  0  0  0  0  0  0  0
   11.1494    1.7395   -1.0319 O   0  0  0  0  0  0  0  0  0  0  0  0
   -4.3866    0.5250    1.1845 O   0  0  0  0  0  0  0  0  0  0  0  0
   12.3205   -0.1621   -1.6674 O   0  0  0  0  0  0  0  0  0  0  0  0
  -10.1951    1.8057    0.3058 O   0  0  0  0  0  0  0  0  0  0  0  0
    1.6361   -1.0304   -0.8042 S   0  0  0  0  0  0  0  0  0  0  0  0
    7.4424   -0.6022   -0.5257 S   0  0  0  0  0  0  0  0  0  0  0  0
  1 34  1  0
  2 34  1  0
  3 36  1  0
  4 37  1  0
  5 38  1  0
  6 39  1  0
  7 42  1  0
  8 42  1  0
  9 42  1  0
 10 43  1  0
 11 43  1  0
 12 44  1  0
 13 44  1  0
 14 44  1  0
 15 45  1  0
 16 45  1  0
 17 45  1  0
 18 46  1  0
 19 46  1  0
 20 47  1  0
 21 47  1  0
 22 48  1  0
 23 48  1  0
 24 49  1  0
 25 49  1  0
 26 50  1  0
 27 50  1  0
 28 51  1  0
 29 51  1  0
 30 52  1  0
 31 52  1  0
 32 35  1  0
 32 55  2  0
 32 57  1  0
 33 41  1  0
 33 53  1  0
 33 56  2  0
 34 35  2  0
 35 43  1  0
 36 38  4  0
 36 40  4  0
 37 39  4  0
 37 40  4  0
 38 41  4  0
 39 41  4  0
 40 59  1  0
 42 57  1  0
 43 60  1  0
 44 53  1  0
 45 53  1  0
 46 50  1  0
 46 58  1  0
 47 51  1  0
 47 58  1  0
 48 52  1  0
 48 59  1  0
 49 52  1  0
 49 60  1  0
 50 54  1  0
 51 54  1  0
 53 54  1  0
M  END
$$$$
