CCCCCC
     RDKit          3D

 20 19  0  0  0  0  0  0  0  0999 V2000
   -2.5677   -1.6320    1.0611 H   0  0  0  0  0  0  0  0  0  0  0  0
   -0.7414   -2.7764    1.5517 H   0  0  0  0  0  0  0  0  0  0  0  0
   -1.2405   -1.2840    2.0004 H   0  0  0  0  0  0  0  0  0  0  0  0
    1.5061    2.5180    1.5239 H   0  0  0  0  0  0  0  0  0  0  0  0
    2.8874    2.0043    0.5270 H   0  0  0  0  0  0  0  0  0  0  0  0
    1.4979    3.4208    0.0130 H   0  0  0  0  0  0  0  0  0  0  0  0
   -1.6730   -2.1314   -1.3125 H   0  0  0  0  0  0  0  0  0  0  0  0
   -0.1793   -2.5869   -0.3450 H   0  0  0  0  0  0  0  0  0  0  0  0
    0.1212    1.7435   -0.0311 H   0  0  0  0  0  0  0  0  0  0  0  0
    1.5320    0.5924    0.1295 H   0  0  0  0  0  0  0  0  0  0  0  0
   -0.5354   -0.1418    0.5133 H   0  0  0  0  0  0  0  0  0  0  0  0
   -1.5551   -0.0930   -0.9106 H   0  0  0  0  0  0  0  0  0  0  0  0
    1.2181   -0.3349   -1.6697 H   0  0  0  0  0  0  0  0  0  0  0  0
   -0.3672    1.0275   -1.9941 H   0  0  0  0  0  0  0  0  0  0  0  0
   -1.6397   -2.1545    1.3687 C   0  0  0  0  0  0  0  0  0  0  0  0
    2.0372    2.6855    0.5780 C   0  0  0  0  0  0  0  0  0  0  0  0
   -1.1674   -2.1228   -0.3823 C   0  0  0  0  0  0  0  0  0  0  0  0
    1.0720    1.4225   -0.4100 C   0  0  0  0  0  0  0  0  0  0  0  0
   -0.6227   -0.4961   -0.5187 C   0  0  0  0  0  0  0  0  0  0  0  0
    0.4175    0.3396   -1.6927 C   0  0  0  0  0  0  0  0  0  0  0  0
  1 15  1  0
  2 15  1  0
  3 15  1  0
  4 16  1  0
  5 16  1  0
  6 16  1  0
  7 17  1  0
  8 17  1  0
  9 18  1  0
 10 18  1  0
 11 19  1  0
 12 19  1  0
 13 20  1  0
 14 20  1  0
 15 17  1  0
 16 18  1  0
 17 19  1  0
 18 20  1  0
 19 20  1  0
M  END
$$$$
