COC(=O)Cc1c(C)oc2cc(N)ccc2c1=O
     RDKit          3D

 31 32  0  0  0  0  0  0  0  0999 V2000
    0.1232    0.2615    2.1230 H   0  0  0  0  0  0  0  0  0  0  0  0
   -1.9258    0.4931   -0.0391 H   0  0  0  0  0  0  0  0  0  0  0  0
    1.7064   -0.2212    1.2779 H   0  0  0  0  0  0  0  0  0  0  0  0
   -2.7849    0.6605    1.3344 H   0  0  0  0  0  0  0  0  0  0  0  0
   -1.6291    0.2803    2.4232 H   0  0  0  0  0  0  0  0  0  0  0  0
    0.7393    3.0581   -0.4895 H   0  0  0  0  0  0  0  0  0  0  0  0
    1.5462    2.3779    1.1074 H   0  0  0  0  0  0  0  0  0  0  0  0
    2.3342    2.1325   -0.4059 H   0  0  0  0  0  0  0  0  0  0  0  0
   -2.1555   -1.7226   -0.8937 H   0  0  0  0  0  0  0  0  0  0  0  0
   -0.9103   -2.4995    0.4883 H   0  0  0  0  0  0  0  0  0  0  0  0
   -1.9235   -1.8150    0.4144 H   0  0  0  0  0  0  0  0  0  0  0  0
    0.4541   -2.4656   -0.0340 H   0  0  0  0  0  0  0  0  0  0  0  0
    2.0318   -1.2129    0.1072 H   0  0  0  0  0  0  0  0  0  0  0  0
    0.1544   -0.2698    0.2076 C   0  0  0  0  0  0  0  0  0  0  0  0
   -0.4129   -1.7362   -1.5424 C   0  0  0  0  0  0  0  0  0  0  0  0
    0.3411    1.1342    1.5557 C   0  0  0  0  0  0  0  0  0  0  0  0
   -0.9879    1.5121    1.0399 C   0  0  0  0  0  0  0  0  0  0  0  0
    1.0133   -1.7567   -1.3432 C   0  0  0  0  0  0  0  0  0  0  0  0
   -1.2473    1.2002   -0.3805 C   0  0  0  0  0  0  0  0  0  0  0  0
    1.5524    0.6487    0.6871 C   0  0  0  0  0  0  0  0  0  0  0  0
    1.8002   -0.6848   -1.8317 C   0  0  0  0  0  0  0  0  0  0  0  0
   -0.1954    0.4900   -1.3485 C   0  0  0  0  0  0  0  0  0  0  0  0
    1.3116    0.3228   -0.9232 C   0  0  0  0  0  0  0  0  0  0  0  0
    1.5110    2.6141    0.0774 C   0  0  0  0  0  0  0  0  0  0  0  0
   -1.5022   -2.4093   -0.4069 C   0  0  0  0  0  0  0  0  0  0  0  0
    1.0926   -1.6635    0.1801 C   0  0  0  0  0  0  0  0  0  0  0  0
   -2.1003    1.0572    1.9688 N   0  0  0  0  0  0  0  0  0  0  0  0
   -0.9502   -0.5065   -0.1651 O   0  0  0  0  0  0  0  0  0  0  0  0
    1.2391   -0.2310   -2.8496 O   0  0  0  0  0  0  0  0  0  0  0  0
    0.4539    1.4808   -0.1912 O   0  0  0  0  0  0  0  0  0  0  0  0
   -0.6797   -0.5296   -2.1480 O   0  0  0  0  0  0  0  0  0  0  0  0
  1 16  1  0
  2 19  1  0
  3 20  1  0
  4 27  1  0
  5 27  1  0
  6 24  1  0
  7 24  1  0
  8 24  1  0
  9 25  1  0
 10 25  1  0
 11 25  1  0
 12 26  1  0
 13 26  1  0
 14 26  1  0
 14 28  2  0
 14 30  1  0
 15 18  4  0
 15 25  1  0
 15 31  4  0
 16 17  4  0
 16 20  4  0
 17 19  4  0
 17 27  1  0
 18 21  4  0
 18 26  1  0
 19 22  4  0
 20 23  4  0
 21 23  4  0
 21 29  2  0
 22 23  4  0
 22 31  4  0
 24 30  1  0
M  END
$$$$
