CCCCCCCCCCCCC
     RDKit          3D

 41 40  0  0  0  0  0  0  0  0999 V2000
    1.2878    0.0684    3.6547 H   0  0  0  0  0  0  0  0  0  0  0  0
   -0.1320   -0.7966    4.0881 H   0  0  0  0  0  0  0  0  0  0  0  0
    1.7408   -1.5091    3.3751 H   0  0  0  0  0  0  0  0  0  0  0  0
   -1.4574    1.2429    3.5337 H   0  0  0  0  0  0  0  0  0  0  0  0
    0.1085    1.1976    4.2104 H   0  0  0  0  0  0  0  0  0  0  0  0
   -0.7843    2.7609    3.0876 H   0  0  0  0  0  0  0  0  0  0  0  0
   -0.4634   -2.1776    1.9504 H   0  0  0  0  0  0  0  0  0  0  0  0
    1.1095   -1.4510    1.7291 H   0  0  0  0  0  0  0  0  0  0  0  0
   -0.0662    2.0407    1.5417 H   0  0  0  0  0  0  0  0  0  0  0  0
   -0.1218    0.5460    2.3533 H   0  0  0  0  0  0  0  0  0  0  0  0
   -1.5898    0.3544    1.4843 H   0  0  0  0  0  0  0  0  0  0  0  0
   -1.5018   -1.2171    0.6352 H   0  0  0  0  0  0  0  0  0  0  0  0
    2.1486   -0.1575    0.9778 H   0  0  0  0  0  0  0  0  0  0  0  0
    1.3016    1.1813    0.2033 H   0  0  0  0  0  0  0  0  0  0  0  0
    0.0059    0.3176   -0.5265 H   0  0  0  0  0  0  0  0  0  0  0  0
   -0.5340    1.7756   -0.1503 H   0  0  0  0  0  0  0  0  0  0  0  0
    0.0753   -2.0393    0.2480 H   0  0  0  0  0  0  0  0  0  0  0  0
    1.6615   -1.1090   -0.6779 H   0  0  0  0  0  0  0  0  0  0  0  0
   -0.2526    2.2330   -1.8776 H   0  0  0  0  0  0  0  0  0  0  0  0
    0.7206    0.8759   -1.7961 H   0  0  0  0  0  0  0  0  0  0  0  0
    0.3924   -0.6514   -1.9803 H   0  0  0  0  0  0  0  0  0  0  0  0
   -1.3087   -1.1061   -1.2370 H   0  0  0  0  0  0  0  0  0  0  0  0
    1.1238    0.3375   -3.5336 H   0  0  0  0  0  0  0  0  0  0  0  0
    0.7800    1.9370   -3.6332 H   0  0  0  0  0  0  0  0  0  0  0  0
   -1.9590   -1.2000   -2.9895 H   0  0  0  0  0  0  0  0  0  0  0  0
   -0.0819   -2.1164   -3.4773 H   0  0  0  0  0  0  0  0  0  0  0  0
   -1.5794    0.1545   -4.2364 H   0  0  0  0  0  0  0  0  0  0  0  0
    0.3346   -0.8148   -4.6134 H   0  0  0  0  0  0  0  0  0  0  0  0
    0.8637   -0.9393    3.7210 C   0  0  0  0  0  0  0  0  0  0  0  0
   -0.5260    1.8541    3.6285 C   0  0  0  0  0  0  0  0  0  0  0  0
    0.1210   -1.3175    2.1072 C   0  0  0  0  0  0  0  0  0  0  0  0
    0.4947    1.3432    2.1516 C   0  0  0  0  0  0  0  0  0  0  0  0
   -0.9751   -0.3285    0.9584 C   0  0  0  0  0  0  0  0  0  0  0  0
    1.2152    0.3199    0.8957 C   0  0  0  0  0  0  0  0  0  0  0  0
   -0.8866    0.8017   -0.4557 C   0  0  0  0  0  0  0  0  0  0  0  0
    0.7659   -1.3378   -0.2003 C   0  0  0  0  0  0  0  0  0  0  0  0
   -0.3191    1.1770   -2.0998 C   0  0  0  0  0  0  0  0  0  0  0  0
   -0.3352   -1.3410   -1.6386 C   0  0  0  0  0  0  0  0  0  0  0  0
    0.2263    0.9691   -3.7366 C   0  0  0  0  0  0  0  0  0  0  0  0
   -0.9822   -1.5583   -3.2425 C   0  0  0  0  0  0  0  0  0  0  0  0
   -0.6214   -0.3200   -4.4322 C   0  0  0  0  0  0  0  0  0  0  0  0
  1 29  1  0
  2 29  1  0
  3 29  1  0
  4 30  1  0
  5 30  1  0
  6 30  1  0
  7 31  1  0
  8 31  1  0
  9 32  1  0
 10 32  1  0
 11 33  1  0
 12 33  1  0
 13 34  1  0
 14 34  1  0
 15 35  1  0
 16 35  1  0
 17 36  1  0
 18 36  1  0
 19 37  1  0
 20 37  1  0
 21 38  1  0
 22 38  1  0
 23 39  1  0
 24 39  1  0
 25 40  1  0
 26 40  1  0
 27 41  1  0
 28 41  1  0
 29 31  1  0
 30 32  1  0
 31 33  1  0
 32 34  1  0
 33 35  1  0
 34 36  1  0
 35 37  1  0
 36 38  1  0
 37 39  1  0
 38 40  1  0
 39 41  1  0
 40 41  1  0
M  END
$$$$
