CCCCCCc1ccccc1
     RDKit          3D

 30 30  0  0  0  0  0  0  0  0999 V2000
    0.1817    1.6787    3.0747 H   0  0  0  0  0  0  0  0  0  0  0  0
    0.1687   -1.3252    3.4005 H   0  0  0  0  0  0  0  0  0  0  0  0
    2.1368   -0.6189    2.7729 H   0  0  0  0  0  0  0  0  0  0  0  0
   -1.8324   -0.0368    1.5079 H   0  0  0  0  0  0  0  0  0  0  0  0
    2.2238    0.0594    0.3470 H   0  0  0  0  0  0  0  0  0  0  0  0
   -0.8020    3.1156   -0.2159 H   0  0  0  0  0  0  0  0  0  0  0  0
   -1.8556    1.6302    0.6510 H   0  0  0  0  0  0  0  0  0  0  0  0
   -0.0644    2.0374    0.9194 H   0  0  0  0  0  0  0  0  0  0  0  0
   -0.6470   -2.4731    0.3854 H   0  0  0  0  0  0  0  0  0  0  0  0
    1.3188   -2.1048   -0.1115 H   0  0  0  0  0  0  0  0  0  0  0  0
    0.5431    1.1792   -0.7915 H   0  0  0  0  0  0  0  0  0  0  0  0
   -1.2367    0.3397   -0.8081 H   0  0  0  0  0  0  0  0  0  0  0  0
    0.8302   -1.3470   -1.8775 H   0  0  0  0  0  0  0  0  0  0  0  0
   -1.2200   -1.4989   -1.4237 H   0  0  0  0  0  0  0  0  0  0  0  0
    0.8666    0.3124   -2.4378 H   0  0  0  0  0  0  0  0  0  0  0  0
    0.0865    1.7018   -2.9633 H   0  0  0  0  0  0  0  0  0  0  0  0
   -1.6479   -0.8865   -3.0707 H   0  0  0  0  0  0  0  0  0  0  0  0
    0.4032   -1.1428   -3.6771 H   0  0  0  0  0  0  0  0  0  0  0  0
    0.6305    0.7566    3.4124 C   0  0  0  0  0  0  0  0  0  0  0  0
   -0.4233   -0.4069    3.2837 C   0  0  0  0  0  0  0  0  0  0  0  0
    1.8636    0.4082    2.5072 C   0  0  0  0  0  0  0  0  0  0  0  0
   -0.8976   -0.4763    1.7909 C   0  0  0  0  0  0  0  0  0  0  0  0
    1.4148    0.3181    1.0163 C   0  0  0  0  0  0  0  0  0  0  0  0
    0.1833   -0.5374    0.7852 C   0  0  0  0  0  0  0  0  0  0  0  0
   -1.0009    2.1874    0.3302 C   0  0  0  0  0  0  0  0  0  0  0  0
    0.2700   -2.0443   -0.0342 C   0  0  0  0  0  0  0  0  0  0  0  0
   -0.5261    1.1348   -1.0276 C   0  0  0  0  0  0  0  0  0  0  0  0
   -0.1811   -1.7413   -1.7222 C   0  0  0  0  0  0  0  0  0  0  0  0
   -0.1631    0.6736   -2.6959 C   0  0  0  0  0  0  0  0  0  0  0  0
   -0.6234   -0.8928   -3.3277 C   0  0  0  0  0  0  0  0  0  0  0  0
  1 19  1  0
  2 20  1  0
  3 21  1  0
  4 22  1  0
  5 23  1  0
  6 25  1  0
  7 25  1  0
  8 25  1  0
  9 26  1  0
 10 26  1  0
 11 27  1  0
 12 27  1  0
 13 28  1  0
 14 28  1  0
 15 29  1  0
 16 29  1  0
 17 30  1  0
 18 30  1  0
 19 20  4  0
 19 21  4  0
 20 22  4  0
 21 23  4  0
 22 24  4  0
 23 24  4  0
 24 26  1  0
 25 27  1  0
 26 28  1  0
 27 29  1  0
 28 30  1  0
 29 30  1  0
M  END
$$$$
