C=C(CSCCCSc1ccc(C(=O)C(C)(C)N2CCOCC2)cc1)C(=O)OC
     RDKit          3D

 60 61  0  0  0  0  0  0  0  0999 V2000
   -0.1758    2.8298    2.6807 H   0  0  0  0  0  0  0  0  0  0  0  0
    1.4624    2.4181    2.5814 H   0  0  0  0  0  0  0  0  0  0  0  0
   -2.0961   -0.6517    1.7539 H   0  0  0  0  0  0  0  0  0  0  0  0
    0.1352    0.7188   -0.1040 H   0  0  0  0  0  0  0  0  0  0  0  0
   -2.0031   -2.1666    1.7365 H   0  0  0  0  0  0  0  0  0  0  0  0
    0.1373   -1.4299    0.4740 H   0  0  0  0  0  0  0  0  0  0  0  0
    2.3145   -0.4634    2.1619 H   0  0  0  0  0  0  0  0  0  0  0  0
    3.1667    0.1728    1.1707 H   0  0  0  0  0  0  0  0  0  0  0  0
    1.8376    0.7890    2.6842 H   0  0  0  0  0  0  0  0  0  0  0  0
    0.0429    1.9148    0.5388 H   0  0  0  0  0  0  0  0  0  0  0  0
   -1.1413    2.6883    0.3385 H   0  0  0  0  0  0  0  0  0  0  0  0
   -0.9524   -1.3886    2.5242 H   0  0  0  0  0  0  0  0  0  0  0  0
   -0.0728   -0.5229    3.0192 H   0  0  0  0  0  0  0  0  0  0  0  0
   -1.6253    0.5630    2.6671 H   0  0  0  0  0  0  0  0  0  0  0  0
   -0.0161   -0.5826    1.5740 H   0  0  0  0  0  0  0  0  0  0  0  0
    0.8113    0.0457    1.3014 H   0  0  0  0  0  0  0  0  0  0  0  0
   -0.8350    1.2447    1.5158 H   0  0  0  0  0  0  0  0  0  0  0  0
    2.0420   -1.0424   -0.0400 H   0  0  0  0  0  0  0  0  0  0  0  0
    1.4655   -0.0126    0.1054 H   0  0  0  0  0  0  0  0  0  0  0  0
    2.2525   -2.9339   -0.8220 H   0  0  0  0  0  0  0  0  0  0  0  0
    3.0798   -1.9299   -0.7528 H   0  0  0  0  0  0  0  0  0  0  0  0
   -2.0248    0.1941   -1.1967 H   0  0  0  0  0  0  0  0  0  0  0  0
   -1.4927   -0.7691   -1.6697 H   0  0  0  0  0  0  0  0  0  0  0  0
    0.0623    0.6111   -3.3079 H   0  0  0  0  0  0  0  0  0  0  0  0
   -0.1542   -1.0553   -2.4283 H   0  0  0  0  0  0  0  0  0  0  0  0
    2.1103    1.0220   -1.7380 H   0  0  0  0  0  0  0  0  0  0  0  0
    0.8769    1.4196   -1.5787 H   0  0  0  0  0  0  0  0  0  0  0  0
    0.1937   -2.6055   -1.4530 H   0  0  0  0  0  0  0  0  0  0  0  0
    1.0843   -2.1372   -0.3059 H   0  0  0  0  0  0  0  0  0  0  0  0
   -2.4979   -1.5710   -2.5157 H   0  0  0  0  0  0  0  0  0  0  0  0
   -1.3028   -1.9973   -2.8810 H   0  0  0  0  0  0  0  0  0  0  0  0
    2.1984    2.5489    0.6383 C   0  0  0  0  0  0  0  0  0  0  0  0
   -2.3641   -0.8468   -0.2105 C   0  0  0  0  0  0  0  0  0  0  0  0
    0.7486    3.1313    2.2335 C   0  0  0  0  0  0  0  0  0  0  0  0
    0.8691    3.2589    0.8367 C   0  0  0  0  0  0  0  0  0  0  0  0
   -2.7741   -0.0823    1.2670 C   0  0  0  0  0  0  0  0  0  0  0  0
   -0.7847    0.2757   -0.4831 C   0  0  0  0  0  0  0  0  0  0  0  0
   -2.7145   -1.6700    1.1089 C   0  0  0  0  0  0  0  0  0  0  0  0
   -0.7066   -1.3003   -0.2090 C   0  0  0  0  0  0  0  0  0  0  0  0
   -2.0904    0.8348    0.1712 C   0  0  0  0  0  0  0  0  0  0  0  0
   -1.8941   -2.0750   -0.0217 C   0  0  0  0  0  0  0  0  0  0  0  0
    2.6507    0.5647    2.0202 C   0  0  0  0  0  0  0  0  0  0  0  0
   -0.2243    2.6087   -0.2095 C   0  0  0  0  0  0  0  0  0  0  0  0
   -1.1010   -0.3605    2.7185 C   0  0  0  0  0  0  0  0  0  0  0  0
   -0.0746    0.4964    1.5927 C   0  0  0  0  0  0  0  0  0  0  0  0
    2.2114   -0.1810   -0.6497 C   0  0  0  0  0  0  0  0  0  0  0  0
    2.5268   -2.2636   -1.6090 C   0  0  0  0  0  0  0  0  0  0  0  0
   -1.9662    0.0292   -2.2436 C   0  0  0  0  0  0  0  0  0  0  0  0
   -0.5033   -0.1858   -2.9147 C   0  0  0  0  0  0  0  0  0  0  0  0
    1.2287    0.4182   -1.6002 C   0  0  0  0  0  0  0  0  0  0  0  0
    1.0184   -1.9468   -1.3292 C   0  0  0  0  0  0  0  0  0  0  0  0
   -1.8098   -1.1019   -3.2383 C   0  0  0  0  0  0  0  0  0  0  0  0
   -1.0252   -0.3555    0.8391 C   0  0  0  0  0  0  0  0  0  0  0  0
    0.3116   -0.5513   -0.8361 N   0  0  0  0  0  0  0  0  0  0  0  0
    2.1439    2.5390   -0.6167 O   0  0  0  0  0  0  0  0  0  0  0  0
   -3.2745   -0.6143   -1.0872 O   0  0  0  0  0  0  0  0  0  0  0  0
    1.8415    1.2350    1.0118 O   0  0  0  0  0  0  0  0  0  0  0  0
    2.6413   -0.8562   -1.8584 O   0  0  0  0  0  0  0  0  0  0  0  0
   -2.9073    1.3031   -1.3510 S   0  0  0  0  0  0  0  0  0  0  0  0
   -0.8607    1.7755   -2.0040 S   0  0  0  0  0  0  0  0  0  0  0  0
  1 34  1  0
  2 34  1  0
  3 36  1  0
  4 37  1  0
  5 38  1  0
  6 39  1  0
  7 42  1  0
  8 42  1  0
  9 42  1  0
 10 43  1  0
 11 43  1  0
 12 44  1  0
 13 44  1  0
 14 44  1  0
 15 45  1  0
 16 45  1  0
 17 45  1  0
 18 46  1  0
 19 46  1  0
 20 47  1  0
 21 47  1  0
 22 48  1  0
 23 48  1  0
 24 49  1  0
 25 49  1  0
 26 50  1  0
 27 50  1  0
 28 51  1  0
 29 51  1  0
 30 52  1  0
 31 52  1  0
 32 35  1  0
 32 55  2  0
 32 57  1  0
 33 41  1  0
 33 53  1  0
 33 56  2  0
 34 35  2  0
 35 43  1  0
 36 38  4  0
 36 40  4  0
 37 39  4  0
 37 40  4  0
 38 41  4  0
 39 41  4  0
 40 59  1  0
 42 57  1  0
 43 60  1  0
 44 53  1  0
 45 53  1  0
 46 50  1  0
 46 58  1  0
 47 51  1  0
 47 58  1  0
 48 52  1  0
 48 59  1  0
 49 52  1  0
 49 60  1  0
 50 54  1  0
 51 54  1  0
 53 54  1  0
M  END
$$$$
