O=C(CC(F)(F)F)NCC1CN(c2ccc3c(c2)CCCc2cn[nH]c2-3)C(=O)O1
     RDKit          3D

 48 51  0  0  0  0  0  0  0  0999 V2000
   -0.7491    1.5481    0.7120 H   0  0  0  0  0  0  0  0  0  0  0  0
    0.7151   -1.7054    1.0934 H   0  0  0  0  0  0  0  0  0  0  0  0
   -1.1474    0.2265    1.5622 H   0  0  0  0  0  0  0  0  0  0  0  0
   -2.9758   -1.4658    1.3170 H   0  0  0  0  0  0  0  0  0  0  0  0
    1.7363    2.6138    0.7947 H   0  0  0  0  0  0  0  0  0  0  0  0
    0.6860    0.3643   -2.2447 H   0  0  0  0  0  0  0  0  0  0  0  0
    2.5781   -1.0370   -0.2985 H   0  0  0  0  0  0  0  0  0  0  0  0
    2.8148    0.0952    0.4427 H   0  0  0  0  0  0  0  0  0  0  0  0
   -1.9807   -2.1968    2.3697 H   0  0  0  0  0  0  0  0  0  0  0  0
   -0.4610   -3.4440    1.6710 H   0  0  0  0  0  0  0  0  0  0  0  0
    1.6151    0.1852    2.5382 H   0  0  0  0  0  0  0  0  0  0  0  0
    1.3732   -1.1659    2.2635 H   0  0  0  0  0  0  0  0  0  0  0  0
    0.3658    3.2366    0.3552 H   0  0  0  0  0  0  0  0  0  0  0  0
   -0.8140    3.1240   -0.1372 H   0  0  0  0  0  0  0  0  0  0  0  0
   -0.7548   -0.2859   -2.0791 H   0  0  0  0  0  0  0  0  0  0  0  0
   -1.0448    0.6814   -0.5902 H   0  0  0  0  0  0  0  0  0  0  0  0
   -1.0542   -0.9480    2.9934 H   0  0  0  0  0  0  0  0  0  0  0  0
    0.4025   -2.3336    2.4873 H   0  0  0  0  0  0  0  0  0  0  0  0
   -0.3294    1.9170   -2.4250 H   0  0  0  0  0  0  0  0  0  0  0  0
   -3.1142    1.2157   -1.5986 C   0  0  0  0  0  0  0  0  0  0  0  0
    2.6749    1.6228   -0.7355 C   0  0  0  0  0  0  0  0  0  0  0  0
    0.2930    1.3126    0.6494 C   0  0  0  0  0  0  0  0  0  0  0  0
   -0.3102   -1.5939    0.8388 C   0  0  0  0  0  0  0  0  0  0  0  0
   -1.2713   -0.5409    0.8506 C   0  0  0  0  0  0  0  0  0  0  0  0
   -2.7822   -1.9370    0.3845 C   0  0  0  0  0  0  0  0  0  0  0  0
   -0.4423   -2.0280   -0.3573 C   0  0  0  0  0  0  0  0  0  0  0  0
   -2.3730   -0.6713   -0.0794 C   0  0  0  0  0  0  0  0  0  0  0  0
   -1.5511   -2.6825    0.5216 C   0  0  0  0  0  0  0  0  0  0  0  0
    0.7997    0.0775    0.9765 C   0  0  0  0  0  0  0  0  0  0  0  0
    0.5586   -0.6934   -0.3460 C   0  0  0  0  0  0  0  0  0  0  0  0
    2.6640   -0.9735   -1.9840 C   0  0  0  0  0  0  0  0  0  0  0  0
    2.9567   -0.0568   -0.6138 C   0  0  0  0  0  0  0  0  0  0  0  0
   -1.1800   -2.8446    2.1798 C   0  0  0  0  0  0  0  0  0  0  0  0
    0.7203   -0.4090    2.5458 C   0  0  0  0  0  0  0  0  0  0  0  0
    0.1185    3.2236   -0.6972 C   0  0  0  0  0  0  0  0  0  0  0  0
   -1.1481    0.5895   -1.6167 C   0  0  0  0  0  0  0  0  0  0  0  0
   -0.2638   -1.6708    2.9660 C   0  0  0  0  0  0  0  0  0  0  0  0
   -0.9364    2.1951   -1.6108 C   0  0  0  0  0  0  0  0  0  0  0  0
    0.6354    1.2527   -0.6473 N   0  0  0  0  0  0  0  0  0  0  0  0
    1.7085    2.8080   -0.2092 N   0  0  0  0  0  0  0  0  0  0  0  0
   -2.4214   -0.0744   -1.4753 N   0  0  0  0  0  0  0  0  0  0  0  0
    0.9286    0.2015   -1.2817 N   0  0  0  0  0  0  0  0  0  0  0  0
   -3.1423    1.5036   -0.3857 O   0  0  0  0  0  0  0  0  0  0  0  0
    2.1701    1.7386   -1.8608 O   0  0  0  0  0  0  0  0  0  0  0  0
   -2.2828    2.2807   -2.1850 O   0  0  0  0  0  0  0  0  0  0  0  0
    2.0987   -2.1560   -1.6027 F   0  0  0  0  0  0  0  0  0  0  0  0
    2.4549    0.0566   -2.7941 F   0  0  0  0  0  0  0  0  0  0  0  0
    1.4615   -1.1564   -2.6577 F   0  0  0  0  0  0  0  0  0  0  0  0
  1 22  1  0
  2 23  1  0
  3 24  1  0
  4 25  1  0
  5 40  1  0
  6 42  1  0
  7 32  1  0
  8 32  1  0
  9 33  1  0
 10 33  1  0
 11 34  1  0
 12 34  1  0
 13 35  1  0
 14 35  1  0
 15 36  1  0
 16 36  1  0
 17 37  1  0
 18 37  1  0
 19 38  1  0
 20 41  1  0
 20 43  2  0
 20 45  1  0
 21 32  1  0
 21 40  1  0
 21 44  2  0
 22 29  4  0
 22 39  4  0
 23 24  4  0
 23 26  4  0
 24 27  4  0
 25 27  4  0
 25 28  4  0
 26 28  4  0
 26 30  1  0
 27 41  1  0
 28 33  1  0
 29 30  4  0
 29 34  1  0
 30 42  4  0
 31 32  1  0
 31 46  1  0
 31 47  1  0
 31 48  1  0
 33 37  1  0
 34 37  1  0
 35 38  1  0
 35 40  1  0
 36 38  1  0
 36 41  1  0
 38 45  1  0
 39 42  4  0
M  END
$$$$
