C=C(CSCCCSc1ccc(C(=O)C(C)(C)N2CCOCC2)cc1)C(=O)OC
     RDKit          3D

 60 61  0  0  0  0  0  0  0  0999 V2000
   -0.2014    2.4585    2.9618 H   0  0  0  0  0  0  0  0  0  0  0  0
    1.4701    2.5499    2.8339 H   0  0  0  0  0  0  0  0  0  0  0  0
   -2.0723    0.4367    2.0646 H   0  0  0  0  0  0  0  0  0  0  0  0
    0.4532    0.3282    0.2393 H   0  0  0  0  0  0  0  0  0  0  0  0
   -1.9317   -2.2142    1.6756 H   0  0  0  0  0  0  0  0  0  0  0  0
    0.0387   -1.8270    0.6112 H   0  0  0  0  0  0  0  0  0  0  0  0
    1.9489   -0.4841    2.3195 H   0  0  0  0  0  0  0  0  0  0  0  0
    3.1663   -0.1425    1.4783 H   0  0  0  0  0  0  0  0  0  0  0  0
    1.6963    1.0253    2.5523 H   0  0  0  0  0  0  0  0  0  0  0  0
   -0.0596    1.7062    0.3604 H   0  0  0  0  0  0  0  0  0  0  0  0
   -1.3051    2.6114    0.4461 H   0  0  0  0  0  0  0  0  0  0  0  0
   -2.1211   -0.8608    2.5665 H   0  0  0  0  0  0  0  0  0  0  0  0
   -0.2608   -1.6201    2.2805 H   0  0  0  0  0  0  0  0  0  0  0  0
   -1.1161   -0.0394    3.0100 H   0  0  0  0  0  0  0  0  0  0  0  0
    0.4659   -0.1290    1.9237 H   0  0  0  0  0  0  0  0  0  0  0  0
    0.6603    1.1386    1.2986 H   0  0  0  0  0  0  0  0  0  0  0  0
   -0.8608    1.5103    1.6541 H   0  0  0  0  0  0  0  0  0  0  0  0
    2.0204   -0.4702   -0.1906 H   0  0  0  0  0  0  0  0  0  0  0  0
    1.8779    1.1213   -0.8870 H   0  0  0  0  0  0  0  0  0  0  0  0
    2.2970   -3.0051   -0.8458 H   0  0  0  0  0  0  0  0  0  0  0  0
    2.9677   -1.8363   -0.3291 H   0  0  0  0  0  0  0  0  0  0  0  0
   -1.3686   -0.5666   -0.6267 H   0  0  0  0  0  0  0  0  0  0  0  0
   -0.6046   -1.2734   -1.3863 H   0  0  0  0  0  0  0  0  0  0  0  0
   -0.7837    0.9420   -3.7240 H   0  0  0  0  0  0  0  0  0  0  0  0
   -2.1616    0.2392   -3.1440 H   0  0  0  0  0  0  0  0  0  0  0  0
    1.4532    1.1816   -2.2580 H   0  0  0  0  0  0  0  0  0  0  0  0
    0.5658    0.4607   -2.9932 H   0  0  0  0  0  0  0  0  0  0  0  0
    0.3326   -2.5513   -1.4146 H   0  0  0  0  0  0  0  0  0  0  0  0
    1.1823   -1.8533   -0.2465 H   0  0  0  0  0  0  0  0  0  0  0  0
   -2.3453   -1.9711   -2.2065 H   0  0  0  0  0  0  0  0  0  0  0  0
   -0.9134   -2.2453   -2.4816 H   0  0  0  0  0  0  0  0  0  0  0  0
    2.1222    2.5691    0.7607 C   0  0  0  0  0  0  0  0  0  0  0  0
   -2.5583   -0.6529   -0.2933 C   0  0  0  0  0  0  0  0  0  0  0  0
    0.5830    3.0602    2.5173 C   0  0  0  0  0  0  0  0  0  0  0  0
    0.6905    3.1176    1.0963 C   0  0  0  0  0  0  0  0  0  0  0  0
   -2.6276    0.0365    1.2875 C   0  0  0  0  0  0  0  0  0  0  0  0
   -0.4900    0.2495   -0.2628 C   0  0  0  0  0  0  0  0  0  0  0  0
   -2.6542   -1.5983    1.1976 C   0  0  0  0  0  0  0  0  0  0  0  0
   -0.6555   -1.4319   -0.1403 C   0  0  0  0  0  0  0  0  0  0  0  0
   -1.8542    0.8197    0.1987 C   0  0  0  0  0  0  0  0  0  0  0  0
   -2.0555   -1.9441   -0.0669 C   0  0  0  0  0  0  0  0  0  0  0  0
    2.4749    0.4624    2.0764 C   0  0  0  0  0  0  0  0  0  0  0  0
   -0.3816    2.5927   -0.0850 C   0  0  0  0  0  0  0  0  0  0  0  0
   -1.0916   -1.0233    2.5671 C   0  0  0  0  0  0  0  0  0  0  0  0
   -0.1671    0.7317    1.7624 C   0  0  0  0  0  0  0  0  0  0  0  0
    2.2357    0.1145   -1.0451 C   0  0  0  0  0  0  0  0  0  0  0  0
    2.6736   -2.1041   -1.3532 C   0  0  0  0  0  0  0  0  0  0  0  0
   -1.3288   -0.5547   -1.6977 C   0  0  0  0  0  0  0  0  0  0  0  0
   -1.1685    0.0229   -3.3786 C   0  0  0  0  0  0  0  0  0  0  0  0
    1.2163    0.1089   -2.2202 C   0  0  0  0  0  0  0  0  0  0  0  0
    1.0863   -1.8255   -1.2957 C   0  0  0  0  0  0  0  0  0  0  0  0
   -1.6143   -1.4978   -2.8735 C   0  0  0  0  0  0  0  0  0  0  0  0
   -1.0209   -0.4300    0.9070 C   0  0  0  0  0  0  0  0  0  0  0  0
    0.2735   -0.6014   -1.0083 N   0  0  0  0  0  0  0  0  0  0  0  0
    2.1316    2.8020   -0.4841 O   0  0  0  0  0  0  0  0  0  0  0  0
   -3.0980   -0.6900   -1.4348 O   0  0  0  0  0  0  0  0  0  0  0  0
    2.2181    1.1141    0.7566 O   0  0  0  0  0  0  0  0  0  0  0  0
    3.1526   -0.7640   -1.7140 O   0  0  0  0  0  0  0  0  0  0  0  0
   -2.3105    1.0299   -1.4161 S   0  0  0  0  0  0  0  0  0  0  0  0
   -0.2719    1.6661   -1.9007 S   0  0  0  0  0  0  0  0  0  0  0  0
  1 34  1  0
  2 34  1  0
  3 36  1  0
  4 37  1  0
  5 38  1  0
  6 39  1  0
  7 42  1  0
  8 42  1  0
  9 42  1  0
 10 43  1  0
 11 43  1  0
 12 44  1  0
 13 44  1  0
 14 44  1  0
 15 45  1  0
 16 45  1  0
 17 45  1  0
 18 46  1  0
 19 46  1  0
 20 47  1  0
 21 47  1  0
 22 48  1  0
 23 48  1  0
 24 49  1  0
 25 49  1  0
 26 50  1  0
 27 50  1  0
 28 51  1  0
 29 51  1  0
 30 52  1  0
 31 52  1  0
 32 35  1  0
 32 55  2  0
 32 57  1  0
 33 41  1  0
 33 53  1  0
 33 56  2  0
 34 35  2  0
 35 43  1  0
 36 38  4  0
 36 40  4  0
 37 39  4  0
 37 40  4  0
 38 41  4  0
 39 41  4  0
 40 59  1  0
 42 57  1  0
 43 60  1  0
 44 53  1  0
 45 53  1  0
 46 50  1  0
 46 58  1  0
 47 51  1  0
 47 58  1  0
 48 52  1  0
 48 59  1  0
 49 52  1  0
 49 60  1  0
 50 54  1  0
 51 54  1  0
 53 54  1  0
M  END
$$$$
