CCCCCCC
     RDKit          3D

 23 22  0  0  0  0  0  0  0  0999 V2000
   -1.1017    1.9364    1.6764 H   0  0  0  0  0  0  0  0  0  0  0  0
   -0.8690    0.5355    2.4376 H   0  0  0  0  0  0  0  0  0  0  0  0
    0.7420    1.1682    2.2646 H   0  0  0  0  0  0  0  0  0  0  0  0
   -1.1002   -1.0724    1.2840 H   0  0  0  0  0  0  0  0  0  0  0  0
    0.8940   -1.6674    1.0647 H   0  0  0  0  0  0  0  0  0  0  0  0
    0.2630   -0.6536    1.9035 H   0  0  0  0  0  0  0  0  0  0  0  0
   -0.9736    0.4632    0.3428 H   0  0  0  0  0  0  0  0  0  0  0  0
    0.8605    0.2539    0.5212 H   0  0  0  0  0  0  0  0  0  0  0  0
   -1.3537   -1.5317   -0.2135 H   0  0  0  0  0  0  0  0  0  0  0  0
    0.6989   -1.9109   -0.3786 H   0  0  0  0  0  0  0  0  0  0  0  0
    1.1837    1.0114   -0.9552 H   0  0  0  0  0  0  0  0  0  0  0  0
   -0.8393    1.3199   -1.1791 H   0  0  0  0  0  0  0  0  0  0  0  0
    0.7713   -0.5472   -1.0432 H   0  0  0  0  0  0  0  0  0  0  0  0
   -1.0658   -0.2600   -1.2383 H   0  0  0  0  0  0  0  0  0  0  0  0
    1.1845   -0.1926   -2.5246 H   0  0  0  0  0  0  0  0  0  0  0  0
    1.1871    1.1641   -2.5340 H   0  0  0  0  0  0  0  0  0  0  0  0
   -0.2933    1.4010    2.1410 C   0  0  0  0  0  0  0  0  0  0  0  0
   -0.1462   -1.5429    1.3799 C   0  0  0  0  0  0  0  0  0  0  0  0
   -0.0210    0.8601    0.5268 C   0  0  0  0  0  0  0  0  0  0  0  0
   -0.3712   -1.9036   -0.3103 C   0  0  0  0  0  0  0  0  0  0  0  0
    0.1896    1.4144   -1.0753 C   0  0  0  0  0  0  0  0  0  0  0  0
   -0.1875   -0.7372   -1.5085 C   0  0  0  0  0  0  0  0  0  0  0  0
    0.3481    0.4914   -2.5819 C   0  0  0  0  0  0  0  0  0  0  0  0
  1 17  1  0
  2 17  1  0
  3 17  1  0
  4 18  1  0
  5 18  1  0
  6 18  1  0
  7 19  1  0
  8 19  1  0
  9 20  1  0
 10 20  1  0
 11 21  1  0
 12 21  1  0
 13 22  1  0
 14 22  1  0
 15 23  1  0
 16 23  1  0
 17 19  1  0
 18 20  1  0
 19 21  1  0
 20 22  1  0
 21 23  1  0
 22 23  1  0
M  END
$$$$
